Version 4
SHEET 1 880 724
WIRE 96 -16 -80 -16
WIRE 320 -16 96 -16
WIRE 464 -16 320 -16
WIRE -80 16 -80 -16
WIRE 96 16 96 -16
WIRE 464 16 464 -16
WIRE -80 128 -80 96
WIRE 96 176 96 96
WIRE 320 176 320 -16
WIRE 96 288 96 256
WIRE 96 288 -96 288
WIRE 160 288 96 288
WIRE 320 288 320 256
WIRE 320 288 240 288
WIRE -96 320 -96 288
WIRE 96 320 96 288
WIRE 320 320 320 288
WIRE -96 432 -96 400
WIRE 96 464 96 400
WIRE 464 464 464 96
WIRE 96 560 96 544
WIRE 96 560 -96 560
WIRE 320 560 320 400
WIRE 320 560 96 560
WIRE 464 560 464 544
WIRE 464 560 320 560
WIRE -96 592 -96 560
WIRE -96 704 -96 672
FLAG -80 128 0
FLAG -96 432 0
FLAG -96 704 0
DATAFLAG 96 128 ""
DATAFLAG 96 448 ""
DATAFLAG 464 240 ""
DATAFLAG 320 288 ""
SYMBOL res 80 0 R0
SYMATTR InstName R1
SYMATTR Value 100
SYMBOL res 80 160 R0
SYMATTR InstName R2
SYMATTR Value 100
SYMBOL res 80 304 R0
SYMATTR InstName R3
SYMATTR Value 100
SYMBOL res 80 448 R0
SYMATTR InstName R4
SYMATTR Value 100
SYMBOL res 304 160 R0
SYMATTR InstName R5
SYMATTR Value 100
SYMBOL res 304 304 R0
SYMATTR InstName R6
SYMATTR Value 100
SYMBOL res 448 0 R0
SYMATTR InstName R7
SYMATTR Value 100
SYMBOL res 448 448 R0
SYMATTR InstName R8
SYMATTR Value 100
SYMBOL res 256 272 R90
WINDOW 0 0 56 VBottom 2
WINDOW 3 32 56 VTop 2
SYMATTR InstName R9
SYMATTR Value 100
SYMBOL voltage -80 0 R0
WINDOW 123 0 0 Left 0
WINDOW 39 0 0 Left 0
SYMATTR InstName V1
SYMATTR Value 6
SYMBOL voltage -96 304 R0
WINDOW 123 0 0 Left 0
WINDOW 39 0 0 Left 0
SYMATTR InstName V2
SYMATTR Value 4
SYMBOL voltage -96 576 R0
WINDOW 123 0 0 Left 0
WINDOW 39 0 0 Left 0
SYMATTR InstName V3
SYMATTR Value 0
TEXT -88 536 Left 2 !.tran 1m
TEXT -152 56 Left 2 ;VA
TEXT -184 360 Left 2 ;VRA
TEXT -176 640 Left 2 ;VLL
TEXT -8 160 Left 2 ;VRA+LA
TEXT -32 456 Left 2 ;VLA+LL
TEXT 488 288 Left 2 ;VRA+LL
TEXT 248 272 Left 2 ;WCT
TEXT -88 -104 Left 2 ;Eksperimen Rangkaian Wilson Central Terminal\nyang akan menjadi referensi dari sistem ECG modern
TEXT 488 128 Left 2 ;V Right Arm = 6v\nV Left Arm   = 4v\nV Left Leg    = 0 v
TEXT -160 184 Left 2 ;Node di VRa+ La = 5v
TEXT -176 480 Left 2 ;Node di VLa+LL = 2v
TEXT 488 320 Left 2 ;Node di VRa+La = 3v
